
     RDKit          2D

 39 42  0  0  0  0  0  0  0  0999 V2000
    1.5000    0.0000    0.0000 N   0  0  0  0  0  0  0  0  0  0  0  0
    0.7500   -1.2990    0.0000 C   0  0  0  0  0  0  0  0  0  0  0  0
   -0.7500   -1.2990    0.0000 C   0  0  0  0  0  0  0  0  0  0  0  0
   -1.5000    0.0000    0.0000 C   0  0  0  0  0  0  0  0  0  0  0  0
   -0.7500    1.2990    0.0000 C   0  0  0  0  0  0  0  0  0  0  0  0
    0.7500    1.2990    0.0000 C   0  0  0  0  0  0  0  0  0  0  0  0
    1.6852    2.4718    0.0000 N   0  0  0  0  0  0  0  0  0  0  0  0
    1.3515    3.9342    0.0000 C   0  0  0  0  0  0  0  0  0  0  0  0
   -0.0000    4.5850    0.0000 C   0  0  0  0  0  0  0  0  0  0  0  0
    0.1121    6.0808    0.0000 C   0  0  0  0  0  0  0  0  0  0  0  0
   -1.1273    6.9258    0.0000 C   0  0  0  0  0  0  0  0  0  0  0  0
   -2.4787    6.2750    0.0000 C   0  0  0  0  0  0  0  0  0  0  0  0
   -2.5908    4.7792    0.0000 C   0  0  0  0  0  0  0  0  0  0  0  0
   -1.3515    3.9342    0.0000 C   0  0  0  0  0  0  0  0  0  0  0  0
   -1.6852    2.4718    0.0000 C   0  0  0  0  0  0  0  0  0  0  0  0
    2.4510    4.9544    0.0000 C   0  0  0  0  0  0  0  0  0  0  0  0
    3.8844    4.5123    0.0000 N   0  0  0  0  0  0  0  0  0  0  0  0
    4.9840    5.5326    0.0000 C   0  0  0  0  0  0  0  0  0  0  0  0
    4.2182    3.0499    0.0000 C   0  0  0  0  0  0  0  0  0  0  0  0
    3.1186    2.0297    0.0000 C   0  0  0  0  0  0  0  0  0  0  0  0
    1.5000   -2.5981    0.0000 H   0  0  0  0  0  0  0  0  0  0  0  0
   -1.5000   -2.5981    0.0000 H   0  0  0  0  0  0  0  0  0  0  0  0
   -3.0000    0.0000    0.0000 H   0  0  0  0  0  0  0  0  0  0  0  0
    2.8138    3.6004    0.0000 H   0  0  0  0  0  0  0  0  0  0  0  0
    1.2479    6.8104    0.0000 H   0  0  0  0  0  0  0  0  0  0  0  0
   -1.0152    8.4216    0.0000 H   0  0  0  0  0  0  0  0  0  0  0  0
   -3.7181    7.1199    0.0000 H   0  0  0  0  0  0  0  0  0  0  0  0
   -3.9423    4.1283    0.0000 H   0  0  0  0  0  0  0  0  0  0  0  0
   -3.0367    3.1226    0.0000 H   0  0  0  0  0  0  0  0  0  0  0  0
   -2.6205    1.2990    0.0000 H   0  0  0  0  0  0  0  0  0  0  0  0
    2.9675    6.3627    0.0000 H   0  0  0  0  0  0  0  0  0  0  0  0
    1.4823    5.8947    0.0000 H   0  0  0  0  0  0  0  0  0  0  0  0
    6.1307    4.5656    0.0000 H   0  0  0  0  0  0  0  0  0  0  0  0
    4.1054    6.7483    0.0000 H   0  0  0  0  0  0  0  0  0  0  0  0
    6.0835    6.5528    0.0000 H   0  0  0  0  0  0  0  0  0  0  0  0
    5.0320    1.7899    0.0000 H   0  0  0  0  0  0  0  0  0  0  0  0
    5.6611    3.4597    0.0000 H   0  0  0  0  0  0  0  0  0  0  0  0
    2.4343    0.6948    0.0000 H   0  0  0  0  0  0  0  0  0  0  0  0
    4.3143    1.1239    0.0000 H   0  0  0  0  0  0  0  0  0  0  0  0
  1  2  2  0
  2  3  1  0
  3  4  2  0
  4  5  1  0
  5  6  2  0
  6  7  1  0
  7  8  1  0
  8  9  1  0
  9 10  2  0
 10 11  1  0
 11 12  2  0
 12 13  1  0
 13 14  2  0
 14 15  1  0
  8 16  1  0
 16 17  1  0
 17 18  1  0
 17 19  1  0
 19 20  1  0
  6  1  1  0
 14  9  1  0
 15  5  1  0
 20  7  1  0
  2 21  1  0
  3 22  1  0
  4 23  1  0
  8 24  1  1
 10 25  1  0
 11 26  1  0
 12 27  1  0
 13 28  1  0
 15 29  1  0
 15 30  1  0
 16 31  1  0
 16 32  1  0
 18 33  1  0
 18 34  1  0
 18 35  1  0
 19 36  1  0
 19 37  1  0
 20 38  1  0
 20 39  1  0
M  END
$$$$
